/*--------------------------------*- C++ -*----------------------------------*\
| =========                 |                                                 |
| \\      /  F ield         | OpenFOAM: The Open Source CFD Toolbox           |
|  \\    /   O peration     | Version:  2506                                  |
|   \\  /    A nd           | Website:  www.openfoam.com                      |
|    \\/     M anipulation  |                                                 |
\*---------------------------------------------------------------------------*/
FoamFile
{
    version     2.0;
    format      ascii;
    arch        "LSB;label=32;scalar=64";
    class       volScalarField;
    location    "0/gap";
    object      cellToRegion;
}
// * * * * * * * * * * * * * * * * * * * * * * * * * * * * * * * * * * * * * //

dimensions      [0 0 0 0 0 0 0];

internalField   uniform 3;

boundaryField
{
    wall-gap
    {
        type            zeroGradient;
    }
    contact_region-src
    {
        type            zeroGradient;
    }
    contact_region_2-src
    {
        type            zeroGradient;
    }
    contact_region_3-src
    {
        type            zeroGradient;
    }
    gap_to_clad
    {
        type            calculated;
        value           uniform 0;
    }
    gap_to_fuel
    {
        type            calculated;
        value           uniform 0;
    }
}


// ************************************************************************* //
